
TIME 100000
SOL  101
CEND
TITLE = LINEAR STATIC ANALYSIS     
$
MAXLINES = 500000
$
$ Output definition
$
ECHO = NONE

DISP(SORT1,PUNCH) = ALL
FORCE(SORT1,PUNCH,REAL) = ALL

SPCFORCES(SORT1,PUNCH,REAL) = ALL
MPCFORCES(SORT1,PUNCH,REAL) = ALL

STRESS(SORT1,PUNCH,REAL,VONMISES) = ALL

load = 100
mpc = 100
spc = 100

BEGIN BULK

PARAM,POST,-2
PARAM,PATVER,3.
PARAM,GRDPNT,0
PARAM,AUTOSPC,NO
PARAM,WTMASS,.002588

$Beams
grid,1,0,0.0000,0.0000,0.0000,0,
grid,2,0,0.0000,5.6000,0.0000,0,
grid,3,0,0.0000,11.2000,0.0000,0,
grid,4,0,0.0000,16.8000,0.0000,0,
grid,5,0,0.0000,22.4000,0.0000,0,
grid,6,0,0.0000,28.0000,0.0000,0,
grid,7,0,0.0000,33.6000,0.0000,0,
grid,8,0,0.0000,39.2000,0.0000,0,
grid,9,0,0.0000,44.8000,0.0000,0,
grid,10,0,0.0000,50.4000,0.0000,0,
grid,11,0,0.0000,56.0000,0.0000,0,
cbeam,1,1,1,2,-1.0000,0.0000,0.0000,
cbeam,2,1,2,3,-1.0000,0.0000,0.0000,
cbeam,3,1,3,4,-1.0000,0.0000,0.0000,
cbeam,4,1,4,5,-1.0000,0.0000,0.0000,
cbeam,5,1,5,6,-1.0000,0.0000,0.0000,
cbeam,6,1,6,7,-1.0000,0.0000,0.0000,
cbeam,7,1,7,8,-1.0000,0.0000,0.0000,
cbeam,8,1,8,9,-1.0000,0.0000,0.0000,
cbeam,9,1,9,10,-1.0000,0.0000,0.0000,
cbeam,10,1,10,11,-1.0000,0.0000,0.0000,
pbeaml,1,1,MSCBML0,ROD,,,,,+
+,4.4836,0.0,YES,1.0,4.4836,0.0,
mat1,1,2.80E+07,,0.2960,0.2830,

$Beams
grid,12,0,0.0000,56.0000,0.0000,0,
grid,13,0,3.9500,56.0000,0.0000,0,
grid,14,0,7.9000,56.0000,0.0000,0,
grid,15,0,11.8500,56.0000,0.0000,0,
grid,16,0,15.8000,56.0000,0.0000,0,
grid,17,0,19.7500,56.0000,0.0000,0,
grid,18,0,23.7000,56.0000,0.0000,0,
grid,19,0,27.6500,56.0000,0.0000,0,
grid,20,0,31.6000,56.0000,0.0000,0,
grid,21,0,35.5500,56.0000,0.0000,0,
grid,22,0,39.5000,56.0000,0.0000,0,
grid,23,0,43.4500,56.0000,0.0000,0,
grid,24,0,47.4000,56.0000,0.0000,0,
grid,25,0,51.3500,56.0000,0.0000,0,
grid,26,0,55.3000,56.0000,0.0000,0,
grid,27,0,59.2500,56.0000,0.0000,0,
grid,28,0,63.2000,56.0000,0.0000,0,
grid,29,0,67.1500,56.0000,0.0000,0,
grid,30,0,71.1000,56.0000,0.0000,0,
grid,31,0,75.0500,56.0000,0.0000,0,
grid,32,0,79.0000,56.0000,0.0000,0,
cbeam,11,2,12,13,-0.0000,1.0000,0.0000,
cbeam,12,2,13,14,-0.0000,1.0000,0.0000,
cbeam,13,2,14,15,-0.0000,1.0000,0.0000,
cbeam,14,2,15,16,-0.0000,1.0000,0.0000,
cbeam,15,2,16,17,-0.0000,1.0000,0.0000,
cbeam,16,2,17,18,-0.0000,1.0000,0.0000,
cbeam,17,2,18,19,-0.0000,1.0000,0.0000,
cbeam,18,2,19,20,-0.0000,1.0000,0.0000,
cbeam,19,2,20,21,-0.0000,1.0000,0.0000,
cbeam,20,2,21,22,-0.0000,1.0000,0.0000,
cbeam,21,2,22,23,-0.0000,1.0000,0.0000,
cbeam,22,2,23,24,-0.0000,1.0000,0.0000,
cbeam,23,2,24,25,-0.0000,1.0000,0.0000,
cbeam,24,2,25,26,-0.0000,1.0000,0.0000,
cbeam,25,2,26,27,-0.0000,1.0000,0.0000,
cbeam,26,2,27,28,-0.0000,1.0000,0.0000,
cbeam,27,2,28,29,-0.0000,1.0000,0.0000,
cbeam,28,2,29,30,-0.0000,1.0000,0.0000,
cbeam,29,2,30,31,-0.0000,1.0000,0.0000,
cbeam,30,2,31,32,-0.0000,1.0000,0.0000,
pbeaml,2,2,MSCBML0,ROD,,,,,+
+,4.7266,0.0,YES,1.0,4.7266,0.0,
mat1,2,2.80E+07,,0.2960,0.2830,

$Beams
grid,33,0,79.0000,56.0000,0.0000,0,
grid,34,0,79.0000,50.4000,0.0000,0,
grid,35,0,79.0000,44.8000,0.0000,0,
grid,36,0,79.0000,39.2000,0.0000,0,
grid,37,0,79.0000,33.6000,0.0000,0,
grid,38,0,79.0000,28.0000,0.0000,0,
grid,39,0,79.0000,22.4000,0.0000,0,
grid,40,0,79.0000,16.8000,0.0000,0,
grid,41,0,79.0000,11.2000,0.0000,0,
grid,42,0,79.0000,5.6000,0.0000,0,
grid,43,0,79.0000,0.0000,0.0000,0,
cbeam,31,3,33,34,1.0000,0.0000,0.0000,
cbeam,32,3,34,35,1.0000,0.0000,0.0000,
cbeam,33,3,35,36,1.0000,0.0000,0.0000,
cbeam,34,3,36,37,1.0000,0.0000,0.0000,
cbeam,35,3,37,38,1.0000,0.0000,0.0000,
cbeam,36,3,38,39,1.0000,0.0000,0.0000,
cbeam,37,3,39,40,1.0000,0.0000,0.0000,
cbeam,38,3,40,41,1.0000,0.0000,0.0000,
cbeam,39,3,41,42,1.0000,0.0000,0.0000,
cbeam,40,3,42,43,1.0000,0.0000,0.0000,
pbeaml,3,3,MSCBML0,ROD,,,,,+
+,4.4836,0.0,YES,1.0,4.4836,0.0,
mat1,3,2.80E+07,,0.2960,0.2830,

$MPC
mpc,1,32,1,1.0,33,1,-1.0
mpc,1,32,2,1.0,33,2,-1.0
mpc,1,32,3,1.0,33,3,-1.0
mpc,1,32,4,1.0,33,4,-1.0
mpc,1,32,5,1.0,33,5,-1.0
mpc,1,32,6,1.0,33,6,-1.0
mpc,2,11,1,1.0,12,1,-1.0
mpc,2,11,2,1.0,12,2,-1.0
mpc,2,11,3,1.0,12,3,-1.0
mpc,2,11,4,1.0,12,4,-1.0
mpc,2,11,5,1.0,12,5,-1.0
mpc,2,11,6,1.0,12,6,-1.0
mpcadd,100,1,2,

$SPC
spc1,1,23,43
spc1,2,1234,1
spcadd,100,1,2,

$LOADS
force,100,27,0,10000.00,0.,1.0,0.,
force,100,4,0,-10000.00,1.0,0.,0.,
force,100,20,0,10000.00,0.,1.0,0.,
ENDDATA
